STAAD SPACE
START JOB INFORMATION
ENGINEER DATE MAY 2007
END JOB INFORMATION
INPUT WIDTH 79
UNIT METER KN
JOINT COORDINATES
102 -8.351 2.581 -4.100; 104 -7.722 3.871 -4.100
106 -3.850 4.198 -4.100; 108 1.150 4.239 -4.100
109 5.150 4.159 -4.100; 111 7.722 3.871 -4.100
113 8.351 2.581 -4.100
201 -8.125 0.000 -2.500; 202 -8.356 2.639 -2.500
203 -8.220 3.372 -2.500; 204 -7.726 3.931 -2.500
205 -7.015 4.155 -2.500; 206 -3.850 4.258 -2.500
207 0.000 4.306 -2.500; 208 1.150 4.300 -2.500
209 5.150 4.220 -2.500; 210 7.015 4.155 -2.500
211 7.726 3.931 -2.500; 212 8.220 3.372 -2.500
213 8.356 2.639 -2.500; 214 8.125 0.000 -2.500
302 -8.364 2.729 0.000; 304 -7.732 4.025 0.000
306 -3.850 4.352 0.000; 308 1.150 4.395 0.000
309 5.150 4.315 0.000; 311 7.732 4.025 0.000
313 8.364 2.729 0.000
401 -8.125 0.000 2.500; 402 -8.356 2.639 2.500
403 -8.220 3.372 2.500; 404 -7.726 3.931 2.500
405 -7.015 4.155 2.500; 406 -3.850 4.258 2.500
407 0.000 4.306 2.500; 408 1.150 4.300 2.500
409 5.150 4.220 2.500; 410 7.015 4.155 2.500
# ... 10 like lines cut
MEMBER INCIDENCES
21 2006 206; 22 2008 208; 23 2009 209
41 4006 406; 42 4008 408; 43 4009 409
*
201 201 202 213; 401 401 402 413
*
1001 102 202; 1002 202 302; 1003 302 402; 1004 402 502
2001 104 204; 2002 204 304; 2003 304 404; 2004 404 504
3001 106 206; 3002 206 306; 3003 306 406; 3004 406 506
4001 108 208; 4002 208 308; 4003 308 408; 4004 408 508
5001 109 209; 5002 209 309; 5003 309 409; 5004 409 509
6001 111 211; 6002 211 311; 6003 311 411; 6004 411 511
7001 113 213; 7002 213 313; 7003 313 413; 7004 413 513
8001 201 402; 8002 401 202; 8003 202 404; 8004 402 204
8005 204 406; 8006 206 404; 8007 206 4006; 8008 406 2006
8009 209 4009; 8010 409 2009; 8011 209 411; 8012 211 409
8013 211 413; 8014 411 213; 8015 213 414; 8016 214 413
DEFINE MATERIAL START
ISOTROPIC STEEL
E 2.05E+008
POISSON 0.3
DENSITY 76.8195
ALPHA 1.2E-005
DAMP 0.03
END DEFINE MATERIAL
MEMBER PROPERTY BRITISH
21 TO 23 41 TO 43 TAPERED 0.25 0.006 0.25 0.25 0.008 0.25 0.008
201 TO 213 401 TO 413 2001 TO 2004
3001 TO 3004 4001 TO 4004 5001 TO 5004
6001 TO 6004 TAPERED 0.3 0.006 0.3 0.15 0.008 0.15 0.008
1001 TO 1004 TAPERED 0.3 0.006 0.3 0.15 0.008 0.15 0.008
7001 TO 7004 TAPERED 0.3 0.008 0.3 0.15 0.008 0.15 0.008
8001 TO 8016 TABLE ST UA90X90X6
CONSTANTS
BETA 90 MEMB 21 TO 23 41 TO 43 1001 TO 1004 7001 TO 7004
MATERIAL STEEL ALL
MEMBER TENSION
8001 TO 8016
SUPPORTS
201 214 401 414 2006 2008 2009 4006 4008 4009 PINNED
LOAD 1 SELFWEIGHT
SELFWEIGHT Y -1
LOAD 2 SDL
MEMBER LOAD
1001 TO 1004 7001 TO 7004 UNI GY -1.70
2001 TO 2004 UNI GY -1.80
3001 TO 3004 4001 TO 4004 UNI GY -3.60
5001 TO 5004 UNI GY -2.60
6001 TO 6004 UNI GY -1.20
LOAD 3 LL
MEMBER LOAD
2001 TO 2004 UNI GY -1.35
3001 TO 3004 4001 TO 4004 UNI GY -2.70
5001 TO 5004 UNI GY -1.95
6001 TO 6004 UNI GY -0.90
JOINT LOAD
308 FY -5
LOAD 11 WL1 (INTERNAL SUCTION, WIND ANGLE 0)
MEMBER LOAD
2001 2002 UNI GY 2.18
2003 2004 UNI GY 0.58
3001 3002 4001 4002 UNI GY 3.92
3003 3004 4003 4004 UNI GY 1.04
5001 5002 UNI GY 2.83
5003 5004 UNI GY 0.75
6001 6002 UNI GY 1.31
6003 6004 UNI GY 0.35
21 UNI GZ 6.70
22 UNI GZ 6.35
23 UNI GZ 5.08
201 TO 203 UNI GZ 3.17
211 TO 213 UNI GZ 2.26
41 UNI GZ 1.19
42 UNI GZ 1.13
43 UNI GZ 0.90
401 TO 403 UNI GZ 0.56
411 TO 413 UNI GZ 0.40
LOAD 12 WL2 (INTERNAL PRESSURE, WIND ANGLE 0)
MEMBER LOAD
2001 2002 UNI GY 3.75
2003 2004 UNI GY 1.25
3001 3002 4001 4002 UNI GY 6.75
3003 3004 4003 4004 UNI GY 2.25
5001 5002 UNI GY 4.88
5003 5004 UNI GY 1.63
6001 6002 UNI GY 2.25
6003 6004 UNI GY 0.75
21 UNI GZ 3.75
22 UNI GZ 3.56
23 UNI GZ 2.84
201 TO 203 UNI GZ 1.78
211 TO 213 UNI GZ 1.26
41 UNI GZ 4.13
42 UNI GZ 3.92
43 UNI GZ 3.13
401 TO 403 UNI GZ 1.95
411 TO 413 UNI GZ 1.39
LOAD 13 WL3 (INTERNAL SUCTION, WIND ANGLE 90)
MEMBER LOAD
2001 TO 2004 UNI GY -1.55
3001 TO 3004 4001 TO 4004 UNI GY -2.79
5001 TO 5004 UNI GY -2.02
6001 TO 6004 UNI GY -0.93
21 UNI GZ -2.95
22 UNI GZ -2.79
23 UNI GZ -2.23
201 TO 203 UNI GZ -1.40
211 TO 213 UNI GZ -0.99
41 UNI GZ 2.95
42 UNI GZ 2.79
43 UNI GZ 2.23
401 TO 403 UNI GZ 1.40
411 TO 413 UNI GZ 0.99
LOAD 14 WL4 (INTERNAL PRESSURE, WIND ANGLE 90)
MEMBER LOAD
2001 TO 2004 UNI GY 2.8
3001 TO 3004 4001 TO 4004 UNI GY 5.04
5001 TO 5004 UNI GY 3.64
6001 TO 6004 UNI GY 1.68
21 UNI GZ -5.89
22 UNI GZ -5.58
23 UNI GZ -4.46
201 TO 203 UNI GZ -2.79
211 TO 213 UNI GZ -1.98
41 UNI GZ 5.89
42 UNI GZ 5.58
43 UNI GZ 4.46
401 TO 403 UNI GZ 2.79
411 TO 413 UNI GZ 1.98
LOAD 15 WL5 (INTERNAL SUCTION, WIND ANGLE 0)
MEMBER LOAD
2001 2002 UNI GY 0.58
2003 2004 UNI GY 2.18
3001 3002 4001 4002 UNI GY 1.04
3003 3004 4003 4004 UNI GY 3.92
5001 5002 UNI GY 0.75
5003 5004 UNI GY 2.83
6001 6002 UNI GY 0.35
6003 6004 UNI GY 1.31
201 TO 203 401 TO 403 UNI GX -0.63
211 TO 213 411 TO 413 UNI GX 2.18
LOAD 16 WL6 (INTERNAL PRESSURE, WIND ANGLE 0)
MEMBER LOAD
2001 2002 UNI GY 1.25
2003 2004 UNI GY 3.75
3001 3002 4001 4002 UNI GY 2.25
3003 3004 4003 4004 UNI GY 6.75
5001 5002 UNI GY 1.63
5003 5004 UNI GY 4.88
6001 6002 UNI GY 0.75
6003 6004 UNI GY 2.25
201 TO 203 401 TO 403 UNI GX -2.18
211 TO 213 411 TO 413 UNI GX 1.98
LOAD 21 EQ1 (EARTHQUAKE LOAD)
JOINT LOAD
204 206 208 209 210 404 406 408 409 410 FX 7.02
LOAD 22 EQ1 (EARTHQUAKE LOAD)
JOINT LOAD
204 206 208 209 210 404 406 408 409 410 FZ 7.02
LOAD COMB 1001 1.4DL + 1.6LL
1 1.4 2 1.4 3 1.6
LOAD COMB 1011 1.2DL + 1.2LL + 1.2WL1
1 1.2 2 1.2 3 1.2 11 1.2
LOAD COMB 1111 1.4DL + 1.4WL1
1 1.4 2 1.4 11 1.4
LOAD COMB 1211 1.0DL + 1.4WL1
1 1.0 2 1.0 11 1.4
LOAD COMB 1012 1.2DL + 1.2LL + 1.2WL2
1 1.2 2 1.2 3 1.2 12 1.2
LOAD COMB 1112 1.4DL + 1.4WL2
1 1.4 2 1.4 12 1.4
LOAD COMB 1212 1.0DL + 1.4WL2
1 1.0 2 1.0 12 1.4
LOAD COMB 1013 1.2DL + 1.2LL + 1.2WL3
1 1.2 2 1.2 3 1.2 13 1.2
LOAD COMB 1113 1.4DL + 1.4WL3
1 1.4 2 1.4 13 1.4
LOAD COMB 1213 1.0DL + 1.4WL3
1 1.0 2 1.0 13 1.4
LOAD COMB 1014 1.2DL + 1.2LL + 1.2WL4
1 1.2 2 1.2 3 1.2 14 1.2
LOAD COMB 1114 1.4DL + 1.4WL4
1 1.4 2 1.4 14 1.4
LOAD COMB 1214 1.0DL + 1.4WL4
1 1.0 2 1.0 14 1.4
LOAD COMB 1015 1.2DL + 1.2LL + 1.2WL5
1 1.2 2 1.2 3 1.2 15 1.2
LOAD COMB 1115 1.4DL + 1.4WL5
1 1.4 2 1.4 15 1.4
LOAD COMB 1215 1.0DL + 1.4WL5
1 1.0 2 1.0 15 1.4
LOAD COMB 1016 1.2DL + 1.2LL + 1.2WL6
1 1.2 2 1.2 3 1.2 16 1.2
LOAD COMB 1116 1.4DL + 1.4WL6
1 1.4 2 1.4 16 1.4
LOAD COMB 1216 1.0DL + 1.4WL6
1 1.0 2 1.0 16 1.4
LOAD COMB 1021 1.2DL + 0.5LL + 1.0EQ1
1 1.2 2 1.2 3 0.5 21 1.0
LOAD COMB 1022 1.2DL + 0.5LL + 1.0EQ2
1 1.2 2 1.2 3 0.5 22 1.0
LOAD COMB 1121 1.2DL + 0.5LL - 1.0EQ1
1 1.2 2 1.2 3 0.5 21 -1.0
LOAD COMB 1122 1.2DL + 0.5LL - 1.0EQ2
1 1.2 2 1.2 3 0.5 22 -1.0
LOAD COMB 1221 0.9DL + 1.0EQ1
1 0.9 2 0.9 21 1.0
LOAD COMB 1222 0.9DL + 1.0EQ2
1 0.9 2 0.9 22 1.0
LOAD COMB 1321 0.9DL - 1.0EQ1
1 0.9 2 0.9 21 -1.0
LOAD COMB 1322 0.9DL - 1.0EQ2
1 0.9 2 0.9 22 -1.0
*SLS
LOAD COMB 2001 1.0DL + 1.0LL
1 1.0 2 1.0 3 1.0
LOAD COMB 2002 1.0DL + 0.5LL
1 1.0 2 1.0 3 0.5
LOAD COMB 2011 DL + LL + WL1
1 1.0 2 1.0 3 1.0 11 1.0
LOAD COMB 2012 DL + LL + WL2
1 1.0 2 1.0 3 1.0 12 1.0
LOAD COMB 2013 DL + LL + WL3
1 1.0 2 1.0 3 1.0 13 1.0
LOAD COMB 2014 DL + LL + WL4
1 1.0 2 1.0 3 1.0 14 1.0
LOAD COMB 2015 DL + LL + WL5
1 1.0 2 1.0 3 1.0 15 1.0
LOAD COMB 2016 DL + LL + WL6
1 1.0 2 1.0 3 1.0 16 1.0
PERFORM ANALYSIS