STAND PLANE BASES3
START JOB INFORMATION
ENGINEER DATE JAN 2025
END JOB INFORMATION
INPUT WIDTH 79
UNIT METER KN
JOINT COORDINATES
1 0 0 0; 2 0.5 0 0; 3 1 0 0; 4 1.5 0 0; 5 2 0 0; 6 2.35 0 0; 7 2.5 -2.7 0
8 2.5 -2.575 0; 9 2.5 -2.335 0; 10 2.5 -2.095 0; 11 2.5 -0.605 0
12 2.5 -0.365 0; 13 2.5 -0.125 0; 14 2.5 0 0; 15 2.5 1.2 0; 16 2.65 -2.7 0
17 2.99 -2.7 0; 18 3.51 -2.7 0; 19 3.85 -2.7 0; 20 4 -2.7 0; 21 4 -2.575 0
22 4 -2.335 0; 23 4 -2.095 0; 24 4 -0.605 0; 25 4 -0.365 0; 26 4 -0.125 0
27 4 0 0; 28 4 1.2 0; 29 4.15 0 0; 30 4.5 0 0; 31 5 0 0; 32 5.115 1.2 0
33 5.5 0 0; 34 6 0 0; 35 6.5 0 0
MEMBER INCIDENCES
1 1 2; 2 2 3; 3 3 4; 4 4 5; 5 5 6; 6 6 14; 7 8 7; 8 9 8; 9 10 9; 10 11 10
11 12 11; 12 13 12; 13 14 13; 14 15 14; 15 7 16; 16 16 17; 17 17 18; 18 18 19
19 19 20; 20 21 20; 21 22 21; 22 23 22; 23 24 23; 24 25 24; 25 26 25; 26 27 26
27 28 27; 28 27 28; 29 29 30; 30 28 32; 31 30 31; 32 31 33; 33 33 34; 34 34 35
35 27 29
MEMBER PROPERTY AMERICAN
1 TO 6 28 29 31 TO 35 PRIS YD 0.25 ZD 1
7 TO 13 15 20 TO 26 PRIS YD 0.3 ZD 1
27 PRIS YD 0.3 ZD 1
14 PRIS YD 0.2 ZD 1
30 PRIS YD 0.15 ZD 1
16 TO 19 PRIS YD 0.4 ZD 1
DEFINE MATERIAL START
ISOTROPIC MATERIAL
E 2.5E+007
POISSON 0.17
DENSITY 24
ALPHA 1.15E-005
END DEFINE MATERIAL
CONSTANTS
MATERIAL MATERIAL MEMB 1 TO 35
SUPPORTS
1 35 FIXED BUT FZ MY MZ KFX 1E+006 KFY 12000
2 TO 4 31 33 34 FIXED BUT FX FZ MY MZ KFY 12000
5 30 FIXED BUT FX FZ MY MZ KFY 18000
7 20 FIXED BUT FX FZ MY MZ KFY 21600
LOAD 1 SELFWEIGHT
SELFWEIGHT Y -1
LOAD 2 SOIL LATERAL PRESSURE
MEMBER LOAD
13 TRAP GX 0 0.5
12 TRAP GX 0.5 1.46
11 TRAP GX 1.46 2.42
10 TRAP GX 2.42 8.38
9 TRAP GX 8.38 9.34
8 TRAP GX 9.34 10.3
7 TRAP GX 10.3 10.8
26 TRAP GX 0 -0.5
25 TRAP GX -0.5 -1.46
24 TRAP GX -1.46 -2.42
23 TRAP GX -2.42 -8.38
22 TRAP GX -8.38 -9.34
21 TRAP GX -9.34 -10.3
20 TRAP GX -10.3 -10.8
LOAD 3 WATER PRESSURE
MEMBER LOAD
13 TRAP GX 0 1.25
12 TRAP GX 1.25 3.65
11 TRAP GX 3.69 6.05
10 TRAP GX 6.05 20.95
9 TRAP GX 20.95 23.35
8 TRAP GX 23.35 25.75
7 TRAP GX 25.75 27
26 TRAP GX 0 -1.25
25 TRAP GX -1.25 -3.65
24 TRAP GX -3.65 -6.05
23 TRAP GX -6.05 -20.95
22 TRAP GX -20.95 -23.35
21 TRAP GX -23.35 -25.75
20 TRAP GX -25.75 -27
LOAD 4 SURCHARGE LHS
MEMBER LOAD
7 TO 13 UNI GX 60
LOAD 5 SURCHARGE RHS
MEMBER LOAD
20 TO 26 UNI GX -40
LOAD 6 PLATFORM LIVE LOAD
MEMBER LOAD
30 UNI GY -5
LOAD 7 TRAIN LOAD CASE 1
MEMBER LOAD
33 UNI GY -100 0.1 0.5
34 UNI GY -100 0 0.4
LOAD 8 TRAIN LOAD CASE 2
MEMBER LOAD
1 UNI GY -100 0.1 0.5
2 UNI GY -100 0 0.4
4 UNI GY -100 0.1 0.5
6 UNI GY -100 0 0.1
5 UNI GY -100 0 0.3
LOAD 9 UPLIFT PRESSURE
MEMBER LOAD
15 TO 19 UNI GY 27
LOAD 10 SOIL LATERAL PRESSURE
MEMBER LOAD
13 TRAP GX 0 1
12 TRAP GX 1 2.92
11 TRAP GX 2.92 4.84
10 TRAP GX 4.84 16.76
9 TRAP GX 16.76 18.68
8 TRAP GX 18.68 20.6
7 TRAP GX 20.6 21.6
26 TRAP GX 0 -1
25 TRAP GX -1 -2.92
24 TRAP GX -2.92 -4.84
23 TRAP GX -4.84 -16.76
22 TRAP GX -16.76 -18.68
21 TRAP GX -18.68 -20.6
20 TRAP GX -20.6 -21.6
LOAD COMBINATION 101
1 1.0 2 1.0 3 1.0 5 1.0 6 1.0 7 1.0 9 1.0
LOAD COMBINATION 102
1 1.0 2 1.0 3 1.0 4 1.0 6 1.0 8 1.0 9 1.0
LOAD COMBINATION 103
1 1.0 2 1.0 3 1.0 4 1.0 5 1.0 6 1.0 7 1.0 8 1.0 9 1.0
LOAD COMBINATION 104
1 1.0 2 1.0 3 1.0 5 1.0 7 1.0 9 1.0
LOAD COMBINATION 105
1 1.0 2 1.0 3 1.0 4 1.0 8 1.0 9 1.0
LOAD COMBINATION 106
1 1.0 2 1.0 3 1.0 4 1.0 5 1.0 7 1.0 8 1.0 9 1.0
LOAD COMBINATION 107
1 1.0 2 1.0 3 1.0 9 1.0
LOAD COMBINATION 108
1 1.0 7 1.0 5 1.0 10 1.0
LOAD COMBINATION 109
1 1.0 8 1.0 4 1.0 10 1.0
LOAD COMBINATION 110
1 1.0 4 1.0 5 1.0 7 1.0 8 1.0 10 1.0
LOAD COMBINATION 201
1 1.4 2 1.4 3 1.4 5 1.6 6 1.6 7 1.6 9 1.4
LOAD COMBINATION 202
1 1.4 2 1.4 3 1.4 4 1.6 5 1.6 8 1.9 1.4
LOAD COMBINATION 203
1 1.4 2 1.4 3 1.4 4 1.6 5 1.6 6 1.6 7 1.6 8 1.9 1.4
LOAD COMBINATION 204
1 1.0 2 1.4 3 1.2 5 1.6 7 1.0 9 1.0
LOAD COMBINATION 205
1 1.0 2 1.4 3 1.2 4 1.6 5 1.0 9 1.0
LOAD COMBINATION 206
1 1.0 2 1.4 3 1.2 4 1.6 5 1.6 7 1.0 8 1.0 9 1.0
LOAD COMBINATION 207
1 1.0 2 1.4 3 1.2 9 1.0
LOAD COMBINATION 208
1 1.0 7 1.6 5 1.0 10 1.0
LOAD COMBINATION 209
1 1.0 8 1.6 4 3.0 10 1.0
LOAD COMBINATION 210
1 1.4 4 1.0 5 1.0 7 1.6 8 1.6 10 1.0
PERFORM ANALYSIS
PRINT MEMBER FORCES
PRINT MAXFORCE ENVELOPE
LOAD LIST 101 TO 110
PRINT SECTION DISPLACEMENT
FINISH
