STAAD PLANE FRAME 1
START JOB INFORMATION
JOB NAME - MDP
END JOB INFORMATION
INPUT WIDTH 79
UNIT METER KN
JOINT COORDINATES
1 0 6.435
2 1.5 6.467
3 14.5 6.743
4 16 6.775
5 17.5 6.796
6 30 6.974
7 31.5 6.995
8 33 7.007
9 36.5 7.035
10 45.5 6.941
11 47 6.925
12 48.5 6.904
13 61 6.726
14 62.5 6.705
15 64 6.666
16 71.5 6.474
17 73 6.435
101 0 0
201 16 0
301 31.5 0
401 47 0
501 62.5 0
601 73 0
MEMBER INCIDENCES
1 1 2 16
101 101 1
201 201 4
301 301 7
401 401 11
501 501 14
601 601 17
MEMBER PROPERTY BRITISH
1 3 4 6 7 10 11 13 14 16 TABLE ST UB610X229X125
2 5 8 9 12 15 TABLE ST UB457X191X98
101 601 TABLE ST UB610X229X140
201 301 401 501 TABLE ST UC305X305X118
DEFINE MATERIAL START
ISOTROPIC STEEL
E 2.05E+08
POISSON 0.3
DENSITY 76.8195
ALPHA 1.20E-05
DAMP 0.03
END DEFINE MATERIAL
CONSTANTS
MATERIAL STEEL ALL
SUPPORTS
101 201 301 401 501 601 PIN
LOAD 1 SELFWEIGHT
SELFWEIGHT Y -1
LOAD 2 SDL
MEMBER LOAD
1 TO 16 UNI GY -6.4
LOAD 3 LL
MEMBER LOAD
1 TO 16 UNI GY -4.8
5 12 CONC GY -5
LOAD 4 PH (NOTIONAL HORIZONTAL LOAD)
JOINT LOAD
1 FX 7
LOAD 11 WL1 (INTERNAL SUCTION, WIND ANGLE 0)
MEMBER LOAD
101 UNI Y -8.9
601 UNI Y -2
1 TO 8 UNI Y 0.3
9 TO 16 UNI Y -5
LOAD 12 WL2 (INTERNAL PRESSURE, WIND ANGLE 0)
MEMBER LOAD
101 UNI Y -4
601 UNI Y -7
1 TO 8 UNI Y 5.3
9 TO 16 UNI Y 4
LOAD 13 WL3 (INTERNAL SUCTION, WIND ANGLE 90)
MEMBER LOAD
101 UNI Y 5
601 UNI Y -5
1 TO 8 UNI Y -5
9 TO 16 UNI Y -5
LOAD 14 WL4 (INTERNAL PRESSURE, WIND ANGLE 90)
MEMBER LOAD
101 UNI Y 9.9
601 UNI Y -9.9
1 TO 8 UNI Y 8.9
9 TO 16 UNI Y 8.9
LOAD 15 WL5 (INTERNAL SUCTION, WIND ANGLE 0, REVERSE WIND)
MEMBER LOAD
101 UNI Y 2
601 UNI Y 8.9
1 TO 8 UNI Y -5
9 TO 16 UNI Y 0.3
LOAD 16 WL6 (INTERNAL PRESSURE, WIND ANGLE 0, REVERSE WIND)
MEMBER LOAD
101 UNI Y 7
601 UNI Y 4
1 TO 8 UNI Y 4
9 TO 16 UNI Y 5.3
LOAD 21 EQ (EARTHQUAKE LOAD)
MEMBER LOAD
101 UNI Y 5.9
201 UNI Y 8.6
301 UNI Y 7.8
401 UNI Y 8.2
501 UNI Y 7.2
601 UNI Y 4.4
LOAD COMB 1001 1.4DL + 1.6LL
1 1.4 2 1.4 3 1.6
LOAD COMB 1002 1.4DL + 1.6LL + 1.0PH
1 1.4 2 1.4 3 1.6 4 1.0
LOAD COMB 1011 1.2DL + 1.2LL + 1.2WL1
1 1.2 2 1.2 3 1.2 11 1.2
LOAD COMB 1111 1.4DL + 1.4WL1
1 1.4 2 1.4 11 1.4
LOAD COMB 1211 1.0DL + 1.4WL1
1 1.0 2 1.0 11 1.4
LOAD COMB 1012 1.2DL + 1.2LL + 1.2WL2
1 1.2 2 1.2 3 1.2 12 1.2
LOAD COMB 1112 1.4DL + 1.4WL2
1 1.4 2 1.4 12 1.4
LOAD COMB 1212 1.0DL + 1.4WL2
1 1.0 2 1.0 12 1.4
LOAD COMB 1013 1.2DL + 1.2LL + 1.2WL3
1 1.2 2 1.2 3 1.2 13 1.2
LOAD COMB 1113 1.4DL + 1.4WL3
1 1.4 2 1.4 13 1.4
LOAD COMB 1213 1.0DL + 1.4WL3
1 1.0 2 1.0 13 1.4
LOAD COMB 1014 1.2DL + 1.2LL + 1.2WL4
1 1.2 2 1.2 3 1.2 14 1.2
LOAD COMB 1114 1.4DL + 1.4WL4
1 1.4 2 1.4 14 1.4
LOAD COMB 1214 1.0DL + 1.4WL4
1 1.0 2 1.0 14 1.4
LOAD COMB 1015 1.2DL + 1.2LL + 1.2WL5
1 1.2 2 1.2 3 1.2 15 1.2
LOAD COMB 1115 1.4DL + 1.4WL5
1 1.4 2 1.4 15 1.4
LOAD COMB 1215 1.0DL + 1.4WL5
1 1.0 2 1.0 15 1.4
LOAD COMB 1016 1.2DL + 1.2LL + 1.2WL6
1 1.2 2 1.2 3 1.2 16 1.2
LOAD COMB 1116 1.4DL + 1.4WL6
1 1.4 2 1.4 16 1.4
LOAD COMB 1216 1.0DL + 1.4WL6
1 1.0 2 1.0 16 1.4
LOAD COMB 1021 1.2DL + 0.5LL + 1.0EQ
1 1.2 2 1.2 3 0.5 21 1.0
LOAD COMB 1121 1.2DL + 0.5LL - 1.0EQ
1 1.2 2 1.2 3 0.5 21 -1.0
LOAD COMB 1221 0.9DL + 1.0EQ
1 0.9 2 0.9 21 1.0
LOAD COMB 1321 0.9DL - 1.0EQ
1 0.9 2 0.9 21 -1.0
LOAD COMB 2001 1.0DL + 1.0LL
1 1.0 2 1.0 3 1.0
LOAD COMB 2002 1.0DL + 0.5LL
1 1.0 2 1.0 3 0.5
LOAD COMB 2011 DL + LL + WL1
1 1.0 2 1.0 3 1.0 11 1.0
LOAD COMB 2012 DL + LL + WL2
1 1.0 2 1.0 3 1.0 12 1.0
LOAD COMB 2013 DL + LL + WL3
1 1.0 2 1.0 3 1.0 13 1.0
LOAD COMB 2014 DL + LL + WL4
1 1.0 2 1.0 3 1.0 14 1.0
LOAD COMB 2015 DL + LL + WL5
1 1.0 2 1.0 3 1.0 15 1.0
LOAD COMB 2016 DL + LL + WL6
1 1.0 2 1.0 3 1.0 16 1.0
PERFORM ANALYSIS
PRINT MAXFORCE ENV
SECTION 0.25 0.5 0.75
PARAMETER
CODE BS5950
LZ 25 MEM 101
LY 3 MEM 101
LZ 16 MEM 201 301 401 501
LZ 23 MEM 601
LY 3 MEM 601
UNL 5 MEM 1 TO 13
LZ 28 MEM 1 TO 13
LY 1.5 MEM 1 TO 13
UNL 6.5 MEM 14 TO 16
LZ 30 MEM 14 TO 16
LY 1.5 MEM 14 TO 16
CHECK CODE ALL
PRINT SUPPORT REACTION ALL
FINISH