
STAAD PLANE CURVE PURLIN
START JOB INFORMATION
ENGINEER DATE DEC 2024
END JOB INFORMATION
INPUT WIDTH 79
UNIT METER KN
JOINT COORDINATES
1 0 0 0; 2 0.118 0.965 0; 3 0.183 1.94 0; 4 -0.159 2.84 0; 5 -0.874 3.5 0;
6 -1.81 3.72 0; 7 -2.8 3.75 0;
MEMBER INCIDENCES
1 7 6; 2 6 5; 3 5 4; 4 4 3; 5 3 2; 6 2 1;
DEFINE MATERIAL START
ISOTROPIC STEEL
E 2.05e+08
POISSON 0.3
DENSITY 76.8195
ALPHA 1.2e-05
DAMP 0.03
END DEFINE MATERIAL
MEMBER PROPERTY EUROPEAN
1 TO 6 TABLE ST IPEA120
CONSTANTS
MATERIAL STEEL ALL
SUPPORTS
1 7 PINNED
LOAD 1 SELFWEIGHT
SELFWEIGHT Y 0 
LOAD 2 DL
**DL = 0.8 KN/M*2
**PURLIN SPACING = 2.0 M
**DL1=0.8*2.0=1.6 KN/M
MEMBER LOAD
1 TO 6 UNI GY -1.6
LOAD 3 LL
MEMBER LOAD
**LL=0.6 KN/M*2
**PURLIN SPACING = 2.0 M
**LLI=0.6*2.0=1.2 RN/M
1 TO 6 UNI GY -1.2
LOAD 11 WL1 (DN)
**WIND LAOD (MAX)=0.62 KN/MO2
**PURLIN SPACING = 2.0 M
**ll1=0.62*2.0=1.24 KN/M
MEMBER LOAD
1 TO 4 UNI Y -1.2
5 6 UNI Y 1.2
LOAD 12 WL2 ( UP )
**WIND LOAD(MAX) =1.12 XN/M‘2
**PURLIN SPACING = 2.0 M
**LLI=1.12*2.0=2.24 N/M
MEMBER LOAD
1 TO 4 UNI Y 2.24
5 6 UNI Y -2.24
****STEEL DESIGN****
LOAD COMB 200 1.4DL + 1.6LL
1 1.4 2 1.4 3 1.6 
******WL1***********
LOAD COMB 201 1.2DL + 1.2LL + 1.2WL1
1 1.2 2 1.2 3 1.2 11 1.2 
LOAD COMB 202 1.4DL + 1.4WL1
1 1.4 2 1.4 11 1.4 
LOAD COMB 203 1DL + 1.4WL1
1 1.0 2 1.0 11 1.4 
********WL1********
LOAD COMB 204 1.2DL + 1.2LL + 1.2WL2
1 1.2 2 1.2 3 1.2 12 1.2 
LOAD COMB 205 1.4DL + 1.4WL2
1 1.4 2 1.4 12 1.4 
LOAD COMB 206 1DL + 1.4WL2
1 1.0 2 1.0 12 1.4 
******DEFLECTION******
LOAD COMB 301 SELF+DL
1 1.0 2 1.0 
LOAD COMB 302 LL
3 1.0 
LOAD COMB 303 0.8(LL+WL1)
3 0.8 11 0.8 
LOAD COMB 304 0.8(LL+WL2)
3 0.8 12 0.8 
PERFORM ANALYSIS
LOAD LIST 301 TO 304
PRINT JOINT DISPLACEMENTS
LOAD LIST 200 TO 206
PARAMETER 1
CODE BS5950
LZ 5.4 ALL
PY 275000 ALL
TRACK 2 ALL
CHECK CODE ALL
