STAAD SPACE
START JOB INFORMATION
ENGINEER DATE 25-JUL-11
END JOB INFORMATION
INPUT WIDTH 79
UNIT METER KN
JOINT COORDINATES
7 0 0 0.59
8 1 0 0.59
9 0 -0.5 0.59
10 0 -0.155 0.59
11 0 -0.31 0.59
12 0 -0.465 0.59
MEMBER INCIDENCES
9 7 8
10 8 9
11 7 10
12 10 11
13 11 12
14 12 9
START USER TABLE
TABLE 1
UNIT METER KN
ANGLE
L150X75X8
0.15 0.075 0.008 0.0163126 0.0008 0.0004
END
DEFINE MATERIAL START
ISOTROPIC STEEL
E 2.05E+008
POISSON 0.3
DENSITY 76.8195
ALPHA 1.2E-005
DAMP 0.03
END DEFINE MATERIAL
MEMBER PROPERTY AMERICAN
9 TO 14 UPTABLE 1 L150X75X8
CONSTANTS
BETA 75 MEMB 9 11 TO 14
MATERIAL STEEL ALL
MEMBER RELEASE
10 START MY MZ
SUPPORTS
7 10 11 PINNED
12 FIXED BUT KMX 0.01 KMY 0.01 KMZ 0.01
LOAD 1 LOADTYPE NONE TITLE DEAD LOAD
SELFWEIGHT Y -1 LIST 9 TO 14
MEMBER LOAD
9 UNI GY -0.12
9 UNI GY -4.5 0 0.5
LOAD 2 LOADTYPE NONE TITLE LIVE LOAD
MEMBER LOAD
9 UNI GY -1.94
LOAD COMB 3 1.0DL + 1.0LL
1 1.0 2 1.0
LOAD COMB 4 2DL + 2LL
1 2.0 2 2.0
PERFORM ANALYSIS