STAAD SPACE MDP_B2_FRAME 4
START JOB INFORMATION
JOB NAME - MA
ENGINEER DATE JAN 2025
END JOB INFORMATION
UNITS METER KN
JOINT COORDINATES
1 0.00 0.00
2 8.00 0.00
3 16.00 0.00
4 24.00 0.00
5 32.00 0.00
6 38.80 0.00
7 40.00 0.00
101 0.00 2.5
201 8.00 2.5
301 16.00 2.5
401 24.00 2.5
501 32.00 2.5
MEMBER INCIDENCES
1 1 2
2 2 3
3 3 4
4 4 5
5 5 6
6 6 7
101 1 101
201 2 201
301 3 301
401 4 401
501 5 501
MEMBER PROPERTY BRITISH
1 TO 5 TABLE ST TUB2002006.3
6 TABLE ST TUB2001006.3
101 TABLE ST TUB2001006.3
201 TABLE ST TUB2001006.3
301 TABLE ST TUB2001006.3
401 TABLE ST TUB2001006.3
501 TABLE ST UC203X203X46
DEFINE MATERIAL START
ISOTROPIC STEEL
E 2.05E+08
POISSON 0.3
DENSITY 76.8195
ALPHA 1.20E-05
DAMP 0.03
END DEFINE MATERIAL
CONSTANTS
MATERIAL STEEL ALL
BETA -90 MEM 101 201 301 401 501
BETA -90 MEM 6
MEMBER RELEASE
101 201 301 401 501 START MY
SUPPORTS
101 201 301 401 501 PIN
7 PIN
LOAD 1 SELFWEIGHT
SELFWEIGHT Y -1
LOAD 2 SDL
MEMBER LOAD
1 TO 6 UNI GY -1.
LOAD 3 LL
MEMBER LOAD
1 TO 6 UNI GY -3
LOAD COMB 1001 1.4DL + 1.6LL
1 1.4 2 1.4 3 1.6
LOAD COMB 2001 1.0DL + 1.0LL
1 1.0 2 1.0 3 1.0
PERFORM ANALYSIS
PRINT MAXFORCE ENV
LOAD LIST 1001
SECTION 0.25 0.5 0.75
PARAMETER
CODE BS5950
CHECK CODE ALL
PARAMETER
TRACK 2 ALL
CHECK CODE MEM 5 6 501
LOAD LIST ALL
PRINT SUPPORT REACTION ALL
FINISH

