STAAD SPACE
START JOB INFORMATION
ENGINEER DATE SEP 2007
JOB NAME DUBAI METRO PROJECT - RASHIDIYA B21
JOB CLIENT DUBAI RTA
JOB NO 068010.01
ENGINEER NAME CJA
JOB COMMENT *COLUMN SIZE INCREASED TO 550MM AS PER JV REQUEST 
END JOB INFORMATION
INPUT WIDTH 79
UNIT METER KN
JOINT COORDINATES
1 0 0 4; 2 0.921 3.062 4; 3 0.91 3.962 4; 4 0.386 4.693 4; 5 -0.463 4.993 4
8 -6.759 5.213 4; 10 -5.85971 5.18158 4; 11 0 0 0; 12 0.921 3.062 0
13 0.91 3.962 0; 14 0.386 4.693 0; 15 -0.463 4.993 0; 17 -5.85971 5.18158 0
18 -6.759 5.213 0; 19 0 0 -4; 20 0.921 3.062 -4; 21 0.91 3.962 -4
22 0.386 4.693 -4; 23 -0.463 4.993 -4; 25 -5.85971 5.18158 -4
26 -6.759 5.213 -4; 27 -1.36245 5.02443 4; 28 -2.2619 5.05586 4
29 -3.16136 5.08729 4; 30 -4.06081 5.11872 4; 31 -4.96026 5.15015 4
32 -1.36245 5.02443 0; 33 -2.2619 5.05586 0; 34 -3.16136 5.08729 0
35 -4.06081 5.11872 0; 36 -4.96026 5.15015 0; 37 -1.36245 5.02443 -4
38 -2.2619 5.05586 -4; 39 -3.16136 5.08729 -4; 40 -4.06081 5.11872 -4
41 -4.96026 5.15015 -4
MEMBER INCIDENCES
1 1 2; 2 2 3; 3 3 4; 4 4 5; 5 5 27; 7 10 8; 8 11 12; 9 12 13; 10 13 14
11 14 15; 12 15 32; 14 17 18; 15 19 20; 16 20 21; 17 21 22; 18 22 23; 19 23 37 
21 25 26; 22 5 12; 23 15 2; 24 15 20; 25 23 12; 26 5 17; 27 15 10; 28 15 25
29 23 17; 30 27 28; 31 28 29; 32 29 30; 33 30 31; 34 31 10; 35 32 33; 36 33 34 
37 34 35; 38 35 36; 39 36 17; 40 37 38; 41 38 39; 42 39 40; 43 40 41; 44 41 25 
45 8 18; 46 10 17; 47 31 36; 48 30 35; 49 29 34; 50 28 33; 51 27 32; 52 5 15 
53 18 26; 54 17 25; 55 36 41; 56 35 40; 57 34 39; 58 33 38; 59 32 37; 60 15 23 
61 4 14; 62 3 13; 63 2 12; 64 14 22; 65 13 21; 66 12 20
START USER TABLE
TABLE 1
UNIT METER KN
PIPE
PIPE1
0.012 0 0 0 
END 
DEFINE MATERIAL START
ISOTROPIC STEEL
E 2.05E+008
POISSON 0.3
DENSITY 77
ALPHA 1.2E-005
DAMP 0.03
END DEFINE MATERIAL
MEMBER PROPERTIES BRITISH
1 TO 4 8 TO 11 15 TO 18 TAPERED 0.55 0.01 0.55 0.25 0.015 0.25 0.015
19 TAPERED 0.55 0.01 0.514285 0.25 0.015 0.25 0.015
7 14 21 TAPERED 0.33571 0.01 0.3 0.25 0.015 0.25 0.015
22 TO 29  UPTABLE 1 PIPE1
5 TAPERED 0.55 0.01 0.514285 0.25 0.015 0.25 0.015
30 TAPERED 0.455776 0.01 0.395235 0.25 0.015 0.25 0.015
31 TAPERED 0.455776 0.01 0.395235 0.25 0.015 0.25 0.015
32 TAPERED 0.395235 0.01 0.355552 0.25 0.015 0.25 0.015
33 TAPERED 0.355552 0.01 0.339017 0.25 0.015 0.25 0.015
34 TAPERED 0.339017 0.01 0.33571 0.25 0.015 0.25 0.015
35 TAPERED 0.514285 0.01 0.45476 0.25 0.015 0.25 0.015
12 TAPERED 0.55 0.01 0.395235 0.25 0.015 0.25 0.015
36 TAPERED 0.45476 0.01 0.355552 0.25 0.015 0.25 0.015
37 TAPERED 0.395235 0.01 0.355552 0.25 0.015 0.25 0.015
38 TAPERED 0.255552 0.01 0.338017 0.25 0.015 0.25 0.015
39 TAPERED 0.339017 0.01 0.33571 0.25 0.015 0.25 0.015
40 TAPERED 0.514285 0.01 0.45476 0.25 0.015 0.25 0.015
41 TAPERED 0.45476 0.01 0.395235 0.25 0.015 0.25 0.015
42 TAPERED 0.395235 0.01 0.355552 0.25 0.015 0.25 0.015
43 TAPERED 0.355552 0.01 0.355552 0.25 0.015 0.25 0.015
44 TAPERED 0.339017 0.01 0.333571 0.25 0.015 0.25 0.015
MEMBER PROPERTY LYSAGHT
45 TO 66 TABLE ST C20024
CONSTANTS
MATERIAL STEEL ALL
SUPPORTS
1 11 19 FIXED
MEMBER CABLE
22 TO 29 TENSION 5 
MEMBER TENSION
22 TO 29
LOAD 1 SELFWEIGHT 
SELFWEIGHT Y -1
LOAD 2 SDL
MEMBER LOAD 
1 TO 5 7 15 TO 19 21 30 TO 34 40 TO 44 UNI GY -1
8 TO 12 14 35 TO 39 UNI GY -2
LOAD 3 LL
MEMBER LOAD 
3 TO 5 7 17 TO 19 21 30 TO 34 TO 44 UNI Y -1.2
10 TO 12 14 35 TO 39 UNI GY -2.4
LOAD 4 PH (NOTIOMAL HORIZONTAL LOAD)
JOINT LOAD
2 20 FX 0.25
12 FX 0.5
LOAD 11 WL1 (INTERNAL SUCTION, WIND ANGLE 0)
MEMBER LOAD
2 16 UNI Y 3.25
9 UNI Y 6.5
3 TO 5 7 17 TO 19 21 30 TO 34 40 TO 44 UNI Y 3.81
10 TO 12 14 35 TO 39 UNI Y 7.62
1 15 UNI Y -3.25
8 UNI Y -6.5
LOAD 12 WL2 (INTERNAL SUCTION, WIND ANGLE 0)
MEMBER LOAD
1 15 UNI Y 3.25
8 UNI Y -6.5
3 TO 5 7 17 TO 19 21 30 TO 34 40 TO 44 UNI Y 1.99
10 TO 12 14 35 TO 39 UNI Y 3.97
2 16 UNI Y 3.25
9 UNI Y 6.5
LOAD 13 WL3 (INTERNAL SUCTION, WIND ANGLE 90)
MEMBER LOAD
2 16 UNI Y 0.42
9 UNI Y 0.84
3 TO 5 7 17 TO 19 21 30 TO 34 40 TO 44 UNI Y -2.06
10 TO 12 14 35 TO 39 UNI Y -4.12
1 15 UNI Y -0.42
8 UNI Y -0.84
LOAD 14 WL4 (INTERNAL SUCTION, WIND ANGLE 90)
MEMBER LOAD
1 15 UNI Y -2.98
8 UNI Y -5.96
2 16 UNI Y 2.98
3 TO 5 7 17 TO 19 21 30 TO 34 40 TO 44 UNI Y 2.73
10 TO 12 14 35 TO 39 UNI Y 5.46
LOAD 15 WL5 (INTERNAL SUCTION. WIND ANGLE 0, REVERSED WIND)
MEMBER LOAD
1 15 UNI Y 3.2
8 UNI Y 6.8
2 16 UNI Y -3.2
9 UNI Y -6.8
3 TO 5 7 17 TO 19 21 30 TO 34 40 TO 44 UNI Y 1.51
10 TO 12 14 35 TO 39 UNI Y 3.02
LOAD 16 WL6 (INTERNAL PRESSURE, WIND ANGLE 0, REVERSE WIND)
MEMBER LOAD
1 15 UNI Y 3.2
8 UNI Y -6.8
2 16 UNI Y 3.4
9 UNI Y 6.8
3 TO 5 7 17 TO 19 21 30 TO 34 40 TO 44 UNI Y 0.93
10 TO 12 14 35 TO 39 UNI Y 1.86
LOAD 21 EQ1 (EARTHQUAKE LOAD)
JOINT LOAD 
2 20 FX 4.6
12 FX 9.2
LOAD COMB 1001 1.4DL + 1.6LL
1 1.4 2 1.4 3 1.6
LOAD COMB 1002 1.4DL + 1.6LL + 1.0PH
1 1.4 2 1.4 3 1.6 4 1.0
LOAD COMB 1011 1.2DL + 1.2LL + 1.2WL1
1 1.2 2 1.2 3 1.2 11 1.2
LOAD COMB 1111 1.4DL + 1.4WL1
1 1.4 2 1.4 11 1.4
LOAD COMB 1211 1.0DL + 1.4WL1
1 1.0 2 1.0 11 1.4
LOAD COMB 1012 1.2DL + 1.2LL + 1.2WL2
1 1.2 2 1.2 3 1.2 12 1.2
LOAD COMB 1112 1.4DL + 1.4WL2
1 1.4 2 1.4 12 1.4
LOAD COMB 1212 1.4DL + 1.4WL2
1 1.0 2 1.0 12 1.4
LOAD COMB 1013 1.2DL + 1.2LL + 1.2WL3
1 1.2 2 1.2 3 1.2 12 1.2
LOAD COMB 1113 1.4DL + 1.4WL3
1 1.4 1.4 13 1.4
LOAD COMB 1213 1.0DL 1.2LL + 1.2WL4
1 1.2 2 1.2 3 1.2 14 1.2
LOAD COMB 1014 1.2DL + 1.2LL + 1.2WL4
1 1.2 2 1.2 3 1.2 14 1.2
LOAD COMB 1114 1.4DL + 1.4WL4
1 1.4 2 1.4 14 1.4
LOAD COMB 1214 1.0DL + 1.4WL4
1 1.0 2 1.0 14 1.4
LOAD COMB 1021 1.2DL + 0.5LL + 1.0EQ1
1 1.2 2 1.2 3 0.2 21 1.0
LOAD COMB 1121 1.2DL + 0.5LL + 1.0EQ1
1 1.1 2 1.2 2 0.5 21 1.0
LOAD COMB 1221 1.2DL + 0.5LL + 1.0EQ1
1 1.2 2 1.2 3 0.5 21 1.0
LOAD COMB 1321 0.9DL - 1.0EQ1
1 0.9 2 0.9 21 -1.0
*SLS
LOAD COMB 2001 1.0DL + 1.0LL
1 1.0 2 1.0 3 1.0
LOAD COMB 2002 1.0DL + 0.5LL
1 1.0 2 1.0 2 0.5
LOAD COMB 2012 DL + LL + WL2
1 1.0 2 1.0 3 1.0 12 1.0
LOAD COMB 2013 DL + LL + WL3
1 1.0 2 1.0 3 1.0 13 1.0 
LOAD COMB 2014 DL + LL + WL4
1 1.0 2 1.0 3 1.0 14 1.0
PERFORM ANALYSIS
