STAAD PLANE BASEMENT TUNNEL - SECTION 2
START JOB INFORMATION
ENGINEER DATE JAN 2025
END JOB INFORMATION
INPUT WIDTH 79
UNIT METER KN
JOINT COORDINATES
JOINT COORDINATES
1 0 0 0; 2 0.5 0 0; 3 1 0 0; 4 1.5 0 0; 5 2 0 0; 6 2.35 0 0; 7 2.5 -2.7 0
8 2.5 -2.575 0; 9 2.5 -2.335 0; 10 2.5 -2.095 0; 11 2.5 -0.605 0
12 2.5 -0.365 0; 13 2.5 -0.125 0; 14 2.5 0 0; 15 2.65 -2.7 0; 16 2.65 0 0
17 2.99 -2.7 0; 18 2.99 0 0; 19 3.51 -2.7 0; 20 3.51 0 0; 21 3.65 -2.7 0
22 3.85 0 0; 23 4 -2.7 0; 24 4 -2.575 0; 25 4 -2.335 0; 26 4 -2.095 0
27 4 -0.605 0; 28 4 -0.365 0; 29 4 -0.125 0; 30 4 0 0; 31 4.15 0 0; 32 4.5 0 0
33 5 0 0; 34 5.5 0 0; 35 6 0 0; 36 6.5 0 0
MEMBER INCIDENCES
1 1 2; 2 2 3; 3 3 4; 4 4 5; 5 5 6; 6 6 14; 7 8 7; 8 9 8; 9 10 9; 10 11 10
11 12 11; 12 13 12; 13 14 13; 14 7 15; 15 14 16; 16 15 17; 17 16 18; 18 17 19
19 18 20; 20 19 21; 21 20 22; 22 21 23; 23 22 30; 24 24 23; 25 25 24; 26 26 25
27 27 26; 28 28 27; 29 29 28; 30 30 29; 31 30 31; 32 31 32; 33 32 33; 34 33 34
35 34 35; 36 35 36
MEMBER PROPERTY AMERICAN
1 TO 6 31 TO 36 PRIS YD 0.25 ZD 1
14 TO 23 PRIS YD 0.4 ZD 1
7 TO 13 24 TO 30 PRIS YD 0.3 ZD 1
DEFINE MATERIAL START
ISOTROPIC MATERIAL1
E 2.5E+007
POISSON 0.17
DENSITY 24
ALPHA 1.1E-005
END DEFINE MATERIAL
CONSTANTS
MATERIAL MATERIAL1 MEMB 1 TO 36
SUPPORTS
1 36 FIXED BUT FZ MY MZ KFX 1000000 KFY 12000
2 TO 4 31 33 TO 35 FIXED BUT FX MY MZ KFY 12000
5 32 FIXED BUT FX MY MZ KFY 18000
7 23 FIXED BUT FX MY MZ KFY 21600
LOAD 1 SELFWEIGHT
SELFWEIGHT Y -1
LOAD 2 SOIL LATERAL PRESSURE (BULK DENSITY)
MEMBER LOAD
7 TRAP GX 10.3 10.8 0 0.125
8 TRAP GX 9.34 10.3 0 0.24
9 TRAP GX 8.38 9.34 0 0.24
10 TRAP GX 2.42 8.38 0 1.49
11 TRAP GX 1.46 2.42 0 0.24
12 TRAP GX 0.5 1.46 0 0.24
13 TRAP GX 0 0.5 0 0.125
24 TRAP GX -10.3 -10.8 0 0.125
25 TRAP GX -9.34 -10.3 0 0.24
26 TRAP GX -8.38 -9.34 0 0.24
27 TRAP GX -2.42 -8.38 0 1.49
28 TRAP GX -1.46 -2.42 0 0.24
29 TRAP GX -0.5 -1.46 0 0.24
30 TRAP GX 0 -0.5 0 0.125
LOAD 3 WATER PRESSURE
MEMBER LOAD
7 TRAP GX 25.75 27 0 0.125
8 TRAP GX 23.35 25.75 0 0.24
9 TRAP GX 20.95 23.35 0 0.24
10 TRAP GX 6.05 20.95 0 1.49
11 TRAP GX 3.65 6.05 0 0.24
12 TRAP GX 1.25 3.65 0 0.24
13 TRAP GX 0 1.25 0 0.125
24 TRAP GX -25.75 -27 0 0.125
25 TRAP GX -23.35 -25.75 0 0.24
26 TRAP GX -20.95 -23.35 0 0.24
27 TRAP GX -6.05 -20.95 0 1.49
28 TRAP GX -3.65 -6.05 0 0.24
29 TRAP GX -1.25 -3.65 0 0.24
30 TRAP GX 0 -1.25 0 0.125
LOAD 4 SURCHARGE FOR 1 AXLE AT LHS
MEMBER LOAD
7 TO 13 UNI GX 40
LOAD 5 SURCHARGE FOR 1 AXLE AT RHS
MEMBER LOAD
24 TO 30 UNI GX -40
LOAD 6 SOIL LATERAL PRESSURE
MEMBER LOAD
7 TRAP GX 20.6 21.6 0 0.125
8 TRAP GX 18.68 20.6 0 0.24
9 TRAP GX 16.76 18.68 0 0.24
10 TRAP GX 4.84 16.76 0 1.49
11 TRAP GX 2.92 4.84 0 0.24
12 TRAP GX 1 2.92 0 0.24
13 TRAP GX 0 1 0 0.125
24 TRAP GX -20.6 -21.6 0 0.125
25 TRAP GX -18.68 -20.6 0 0.24
26 TRAP GX -16.76 -18.68 0 0.24
27 TRAP GX -4.84 -16.76 0 1.49
28 TRAP GX -2.92 -4.84 0 0.24
29 TRAP GX -1 -2.92 0 0.24
30 TRAP GX 0 -1 0 0.125
LOAD 7 TRAIN LOAD CASE 1
MEMBER LOAD
21 UNI GY -100 0 0.14
19 UNI GY -100 0 0.52
17 UNI GY -100 0.2 0.34
2 UNI GY -100 0.37 0.5
3 UNI GY -100
4 UNI GY -100 0 0.17
LOAD 8 TRAIN LOAD CASE 2
MEMBER LOAD
1 UNI GY -100 0.12 0.5
2 UNI GY -100 0 0.42
6 UNI GY -100 0 0.15
5 UNI GY -100 0.1 0.35
17 UNI GY -100 0 0.25
15 UNI GY -100 0 0.15
LOAD 9 TRAIN LOAD CASE 3
MEMBER LOAD
4 UNI GY -100 0.36 0.5
5 6 UNI GY -100
17 UNI GY -100 0.0099999
15 UNI GY -100 0 0.15
23 UNI GY -100 0 0.15
21 UNI GY -100 0.33 0.34
31 32 UNI GY -100
33 UNI GY -100 0.14
LOAD 10 UPLIFT PRESSURE
MEMBER LOAD
14 16 18 20 22 UNI GY 27
LOAD COMBINATION 101
1 1.0 2 1.0 3 1.0 4 1.0 7 1.0 10 1.0
LOAD COMBINATION 102
1 1.0 2 1.0 3 1.0 4 1.0 8 1.0 10 1.0
LOAD COMBINATION 103
1 1.0 2 1.0 3 1.0 4 1.0 5 1.0 9 1.0 10 1.0
LOAD COMBINATION 104
1 1.0 2 1.0 3 1.0 4 1.0 8 1.0 10 1.0
LOAD COMBINATION 105
1 1.0 2 1.0 3 1.0 4 1.0 5 1.0 9 1.0 10 1.0
LOAD COMBINATION 106
1 1.0 2 1.0 3 1.0 10 1.0
LOAD COMBINATION 107
1 1.0 4 1.0 6 1.0 7 1.0
LOAD COMBINATION 108
1 1.0 4 1.0 5 1.0 6 1.0 9 1.0
LOAD COMBINATION 201
1 1.4 2 1.4 3 1.4 4 1.6 7 1.6 10 1.4
LOAD COMBINATION 202
1 1.4 2 1.4 3 1.4 4 1.6 8 1.6 10 1.4
LOAD COMBINATION 203
1 1.4 2 1.4 3 1.4 4 1.6 5 1.6 9 1.6 10 1.4
LOAD COMBINATION 204
1 1.0 2 1.4 3 1.2 4 1.6 6 1.0 10 1.0
LOAD COMBINATION 205
1 1.0 2 1.4 3 1.2 4 1.6 5 1.6 9 1.0 10 1.0
LOAD COMBINATION 206
1 1.0 2 1.4 3 1.2 10 1.0
LOAD COMBINATION 207
1 1.4 4 1.0 6 1.0 7 1.6
LOAD COMBINATION 208
1 1.4 4 1.0 5 1.0 6 1.0 9 1.6
PERFORM ANALYSIS
LOAD LIST 201 TO 208
PRINT SUPPORT REACTION
PRINT MAXFORCE ENVELOPE
PRINT MEMBER FORCES
LOAD LIST 101 TO 108
PRINT SECTION DISPL
FINISH