STAAD SPACE MDP_B2_FRAME 1
START JOB INFORMATION
JOB NAME - MA
ENGINEER DATE JAN 2025
END JOB INFORMATION
UNITS METER KN
JOINT COORDINATES
1 0 5.435
2 1.5 5.435
3 4 5.435
4 10 5.435
5 16 5.435
6 18.5 5.435
7 20 5.435
101 0 0
201 20 0
MEMBER INCIDENCES
1 1 2
2 2 3
3 3 4
4 4 5
5 5 6
6 6 7
101 101 1
201 201 7
MEMBER PROPERTY BRITISH
1 6 TABLE ST UB610X229X140
2 3 4 5 TABLE ST UB610X229X140
101 201 TABLE ST UB610X229X140
DEFINE MATERIAL START
ISOTROPIC STEEL
E 2.05E+08
POISSON 0.3
DENSITY 76.8195
ALPHA 1.20E-05
DAMP 0.03
END DEFINE MATERIAL
CONSTANTS
MATERIAL STEEL ALL
SUPPORTS
101 201 PIN
LOAD 1 SELFWEIGHT
SELFWEIGHT Y -1
LOAD 2 SDL
JOINT LOAD
1 7 FY -28.5
MEMBER LOAD
1 TO 6 UNI GY -6.4
1 CON GY -8 1.3
2 CON GY -8 1
LOAD 3 LL
JOINT LOAD
1 7 FY -3.4
4 FY -5
MEMBER LOAD
1 TO 6 UNI GY -4.8
2 CON GY -10 2
1 CON GY -10 2
4 CON GY -10 2
5 CON GY -10 2
1 CON GY -24 1.3
2 CON GY -24 1
LOAD 4 PH (NOTIONAL HORIZONTAL LOAD)
JOINT LOAD
1 FX 3.2
LOAD 11 WL1 (INTERNAL SUCTION, WIND ANGLE 0)
MEMBER LOAD
101 UNI Y -9.5
201 UNI Y -2
1 2 3 UNI Y -2.9
4 5 6 UNI Y -5
LOAD 12 WL2 (INTERNAL PRESSURE, WIND ANGLE 0)
MEMBER LOAD
101 UNI Y -4.5
201 UNI Y -7
1 2 3 UNI Y -7.8
4 5 6 UNI Y -4
LOAD 13 WL3 (INTERNAL SUCTION, WIND ANGLE 90)
MEMBER LOAD
101 UNI Y 5
201 UNI Y 5
1 2 3 UNI Y 5
4 5 6 UNI Y 5
LOAD 14 WL4 (INTERNAL PRESSURE, WIND ANGLE 90)
MEMBER LOAD
101 UNI Y 9.9
201 UNI Y -9.9
1 2 3 UNI Y 8.9
4 5 6 UNI Y 8.9
LOAD 15 WL5 (INTERNAL SUCTION, WIND ANGLE 0, REVERSE WIND)
MEMBER LOAD
101 UNI Y 2
201 UNI Y 9.5
1 2 3 UNI Y -5
4 5 6 UNI Y 2.9
LOAD 16 WL6 (INTERNAL PRESSURE, WIND ANGLE 0, REVERSE WIND)
MEMBER LOAD
101 UNI Y 7
201 UNI Y 4.5
1 2 3 UNI Y 4
4 5 6 UNI Y 7.8
LOAD 21 EQ (EARTHQUAKE LOAD)
MEMBER LOAD
101 UNI Y 11.5
201 UNI Y 9.6
LOAD COMB 1001 1.4DL + 1.6LL
1 1.4 2 1.4 3 1.6
LOAD COMB 1002 1.4DL + 1.6LL + 1.0PH
1 1.4 2 1.4 3 1.6 4 1.0
LOAD COMB 1011 1.2DL + 1.2LL + 1.2WL1
1 1.2 2 1.2 3 1.2 11 1.2
LOAD COMB 1111 1.4DL + 1.4WL1
1 1.4 2 1.4 3 1.4 11 1.4
LOAD COMB 1211 1.0DL + 1.4WL1
1 1.0 2 1.0 11 1.4
LOAD COMB 1012 1.2DL + 1.2LL + 1.2WL2
1 1.2 2 1.2 3 1.2 12 1.2
LOAD COMB 1112 1.4DL + 1.4WL2
1 1.4 2 1.4 12 1.4
LOAD COMB 1212 1.0DL + 1.4WL2
1 1.0 2 1.0 12 1.4
LOAD COMB 1013 1.2DL + 1.2LL + 1.2WL3
1 1.2 2 1.2 3 1.2 13 1.2
LOAD COMB 1113 1.4DL + 1.4WL3
1 1.4 2 1.4 13 1.4
LOAD COMB 1213 1.0DL + 1.4WL3
1 1.0 2 1.0 3 1.0 13 1.4
LOAD COMB 1014 1.2DL + 1.2LL + 1.2WL4
1 1.2 2 1.2 3 1.2 14 1.2
LOAD COMB 1114 1.4DL + 1.4WL4
1 1.4 2 1.4 3 1.4 14 1.4
LOAD COMB 1214 1.0DL + 1.2WL4
1 1.0 2 1.0 14 1.2
LOAD COMB 1015 1.2DL + 1.2LL + 1.2WL5
1 1.2 2 1.2 3 1.2 15 1.2
LOAD COMB 1115 1.4DL + 1.4WL5
1 1.4 2 1.4 15 1.4
LOAD COMB 1215 1.0DL + 1.2WL5
1 1.0 2 1.0 15 1.2
LOAD COMB 1016 1.2DL + 1.2LL + 1.2WL6
1 1.2 2 1.2 3 1.2 16 1.2
LOAD COMB 1116 1.4DL + 1.4WL6
1 1.4 2 1.4 16 1.4
LOAD COMB 1216 1.0DL + 1.2WL6
1 1.0 2 1.0 16 1.2
LOAD COMB 1021 1.2DL + 0.5LL + 1.0EQ
1 1.2 2 1.2 3 0.5 21 1.0
LOAD COMB 1121 1.2DL + 0.5LL - 1.0EQ
1 1.2 2 1.2 3 0.5 21 -1.0
LOAD COMB 1221 0.9DL + 1.0EQ
1 0.9 2 0.9 21 1.0
LOAD COMB 1321 0.9DL - 1.0EQ
1 0.9 2 0.9 3 0.9 21 -1.0
LOAD COMB 2001 1.0DL + 1.0LL
1 1.0 2 1.0 3 1.0
LOAD COMB 2002 1.0DL + 0.5LL
1 1.0 2 1.0 3 1.0
LOAD COMB 2011 DL + LL + WL1
1 1.0 2 1.0 3 1.0 11 1.0
LOAD COMB 2012 DL + LL + WL2
1 1.0 2 1.0 3 1.0 12 1.0
LOAD COMB 2013 DL + LL + WL3
1 1.0 2 1.0 3 1.0 13 1.0
LOAD COMB 2014 DL + LL + WL4
1 1.0 2 1.0 3 1.0 14 1.0
LOAD COMB 2015 DL + LL + WL5
1 1.0 2 1.0 3 1.0 15 1.0
LOAD COMB 2016 DL + LL + WL6
1 1.0 2 1.0 3 1.0 16 1.0
PERFORM ANALYSIS
PRINT MAXFORCE ENV
LOAD LIST 1001 1002 -
1011 1111 1211 -
1012 1112 1212 -
1013 1113 1213 -
1014 1114 1214 -
1015 1115 1215 -
1016 1116 1216 -
1021 1121 1221 1321
SECTION 0.25 0.5 0.75
PARAMETER
CODE BS5950
UNL 3 MEM 101 201
LZ 18 MEM 101 201
LY 3 MEM 101 201
UNL 3 MEM 1 2 5 6
UNL 1.5 MEM 1 2 3 4 5 6
LZ 30 MEM 1 2 3 4 5 6
LY 1.5 MEM 1 2 3 4 5 6
CHECK CODE ALL #204
LOAD LIST ALL
PRINT SUPPORT REACTION ALL
FINISH
