STAAD SPACE
START JOB INFORMATION
ENGINEER DATE JAN 2025
END JOB INFORMATION
INPUT WIDTH 79
UNIT METER KN
JOINT COORDINATES
102 -12.500 3.860 -10.586
104 -12.500 5.067 -9.804
106 -12.500 5.764 -5.000
108 -12.500 5.891 0.000
111 -12.500 5.764 5.000
113 -12.500 5.067 9.804
115 -12.500 3.860 10.586
201 -9.500 0.000 -10.279
202 -9.500 3.965 -10.556
203 -9.500 4.842 -10.381
204 -9.500 5.265 -10.000
205 -9.500 5.772 -8.930
206 -9.500 5.872 -5.000
207 -9.500 5.961 -1.500
208 -9.500 5.999 0.000
209 -9.500 5.961 1.500
210 -9.500 5.935 2.500
211 -9.500 5.872 5.000
212 -9.500 5.772 8.930
213 -9.500 5.265 10.000
# ... 62 like lines cut
MEMBER INCIDENCES
*COLUMN
21 2006 206; 22 2008 208; 23 2010 210; 24 2011 211
31 3008 308
51 5006 506; 52 5007 507; 53 5009 509; 54 5011 511
*ROOF BEAM
201 201 202 215; 301 301 302 315
401 401 402 403; 413 413 414 415
501 501 502 515
*
1001 104 204; 1002 204 304; 1003 304 404
1004 404 504; 1005 504 604
2001 106 206; 2002 206 306; 2003 306 406
2004 406 506; 2005 506 606
3001 108 208; 3002 208 308; 3003 308 408
3004 408 508; 3005 508 608
4001 111 211; 4002 211 311
4003 311 411
4004 411 511; 4005 511 611
5001 113 213; 5002 213 413
5003 313 413; 5004 413 513
5005 513 613
*SIDE BEAM
6001 102 202; 6002 202 302
6003 302 402
6004 402 502
6005 502 602
7001 115 215; 7002 215 315
7003 315 415; 7004 415 515
7005 515 615
*HORIZONTAL BRACING
8001 204 306; 8002 206 308; 8003 208 311; 8004 211 313
8005 304 206; 8006 306 308; 8007 308 211; 8008 311 213
8009 313 511
8010 311 508; 8011 308 506; 8012 306 504
8013 513 311; 8014 511 308; 8015 508 306; 8016 506 304
*VERTICAL BRACING
9001 208 2010; 9002 210 2008; 9003 507 5009;
9004 509 5007
9005 301 404; 9006 401 304; 9007 316 413; 9008 416 313
DEFINE MATERIAL START
ISOTROPIC STEEL
E 2.05E+008
POISSON 0.3
DENSITY 76.8195
ALPHA 1.2E-005
DAMP 0.03
END DEFINE MATERIAL
MEMBER PROPERTY BRITISH
21 TO 24 31 -
51 TO 54 TAPERED 0.3 0.006 0.3 0.2 0.01 0.2 0.01
201 TO 203 213 TO 215 301 TO 303 313 TO 315 -
401 TO 403 413 TO 415 501 TO 503 -
513 TO 515 TAPERED 0.3 0.006 0.3 0.2 0.01 0.2 0.01
204 TO 212 304 TO 312 -
504 TO 512 TAPERED 0.3 0.006 0.3 0.2 0.01 0.2 0.01
2001 TO 2005 3001 TO 3005 -
4001 TO 4005 TAPERED 0.3 0.006 0.3 0.15 0.008 0.15 0.008
1001 TO 1005 -
5001 TO 5005 TAPERED 0.3 0.006 0.3 0.15 0.008 0.15 0.008
6001 TO 6005 TAPERED 0.3 0.010 0.3 0.25 0.015 0.25 0.015
7001 TO 7005 TAPERED 0.3 0.010 0.3 0.25 0.015 0.25 0.015
8001 TO 8016 9001 TO 9008 TABLE ST UA60x60x8
CONSTANTS
BETA 90 MEMB 21 TO 24 31 51 TO 54 6001 TO 6005 7001 TO 7005
MATERIAL STEEL ALL
MEMBER TENSION
8001 TO 8016 9001 TO 9008
SUPPORTS
201 216 301 316 401 416 501 516 -
2006 2008 2010 2011 3008 5006 5007 5009 5011 PINNED
LOAD 1 SELFWEIGHT
SELFWEIGHT Y -1
LOAD 2 SDL
MEMBER LOAD
1001 TO 1005 5001 TO 5005 UNI GY -3.2
2001 TO 2005 3001 TO 3005 4001 TO 4005 UNI GY -4
6001 TO 6005 7001 TO 7005 UNI GY -2.9
LOAD 3 LL
MEMBER LOAD
1001 TO 1005 5001 TO 5005 UNI GY -1.5
2001 TO 2005 3001 TO 3005 4001 TO 4005 UNI GY -3
JOINT LOAD
*AIRCON LOAD
408 FY -5
*ROOF WIND LOAD WILL BE TRANSFERRED THROUGH ROOF SECONDARY BEAM
*AND WALL WIND LOAD WILL BE ACTING ON THE MAIN FRAME
LOAD 11 WL1 (INTERNAL SUCTION, WIND ANGLE 0)
MEMBER LOAD
1002 TO 1004 UNI GY 1.175
2002 TO 2004 UNI GY 2.35
3002 TO 3004 UNI GY -0.375
4002 TO 4004 UNI GY -3.1
5002 TO 5004 UNI GY -1.55
201 TO 203 UNI GZ 4.96
301 TO 303 UNI GZ 11.78
501 TO 503 UNI GZ 6.82
313 TO 315 UNI GZ 1.00
313 TO 315 UNI GZ 2.375
513 TO 515 UNI GZ 1.375
LOAD 12 WL2 (INTERNAL PRESSURE, WIND ANGLE 0)
MEMBER LOAD
1001 TO 1004 UNI GY 2.725
2002 TO 2004 UNI GY 5.45
3002 TO 3004 UNI GY 3.975
4002 TO 4004 UNI GY 2.5
5002 TO 5004 UNI GY 1.25
201 TO 203 UNI GZ 2.44
301 TO 303 UNI GZ 5.795
501 TO 503 UNI GZ 3.355
213 TO 215 UNI GZ 3.48
313 TO 315 UNI GZ 8.265
513 TO 515 UNI GZ 4.785
LOAD 13 WL3 (INTERNAL SUCTION, WIND ANGLE 90)
MEMBER LOAD
1002 TO 1004 UNI GY -1.55
2002 TO 2004 UNI GY -3.1
3002 TO 3004 UNI GY -3.1
4002 TO 4004 UNI GY -3.1
5002 TO 5004 UNI GY -1.55
201 TO 203 213 TO 215 UNI GX -1.55
21 22 24 UNI GX -3.1
501 TO 503 513 TO 515 UNI GY 1.55
51 54 UNI GX 1.55
52 53 UNI GX 3.1
LOAD 14 WL4 (INTERNAL PRESSURE, WIND ANGLE 90)
MEMBER LOAD
1002 TO 1004 UNI GY 2.8
2002 TO 2004 UNI GY 5.6
3002 TO 3004 UNI GY 5.6
4002 TO 4004 UNI GY 5.6
5002 TO 5004 UNI GY 2.8
201 TO 203 213 TO 215 UNI GX -3.1
21 22 24 UNI GX -6.2
501 TO 503 513 TO 515 UNI GY 3.1
51 54 UNI GX 3.1
52 53 UNI GX 6.2
LOAD 21 EQ1 (EARTHQUAKE LOAD)
JOINT LOAD
204 206 208 211 213 304 308 313 -
504 506 508 511 513 FX 19.6
LOAD 22 EQ2 (EARTHQUAKE LOAD)
JOINT LOAD
204 206 208 211 213 304 308 313 -
504 506 508 511 513 FZ 19.6
LOAD COMB 1001 1.4DL + 1.6LL
1.4 2 1.4 3 1.6
LOAD COMB 1011 1.2DL + 1.2LL + 1.2WL1
1 1.2 2 1.2 3 1.2 11 1.2
LOAD COMB 1111 1.4DL + 1.4WL1
1 1.4 2 1.4 11 1.4
LOAD COMB 1211 1.0DL + 1.4WL1
1 1.0 2 1.0 11 1.4
LOAD COMB 1012 1.2DL + 1.2LL + 1.2WL2
1 1.2 2 1.2 3 1.2 12 1.2
LOAD COMB 1112 1.4DL + 1.4WL2
1 1.4 2 1.4 12 1.4
LOAD COMB 1212 1.0DL + 1.4WL2
1 1.0 2 1.0 12 1.4
LOAD COMB 1013 1.2DL + 1.2LL + 1.2WL3
1 1.2 2 1.2 3 1.2 13 1.2
LOAD COMB 1113 1.4DL + 1.4WL3
1 1.4 2 1.4 13 1.4
LOAD COMB 1213 1.0DL + 1.4WL3
1 1.0 2 1.0 13 1.4
LOAD COMB 1014 1.2DL + 1.2LL + 1.2WL4
1 1.2 2 1.2 3 1.2 14 1.2
LOAD COMB 1114 1.4DL + 1.4WL4
1 1.4 2 1.4 14 1.4
LOAD COMB 1214 1.0DL + 1.4WL4
1 1.0 2 1.0 14 1.4
LOAD COMB 1021 1.2DL + 0.5LL + 1.0EQ1
1 1.2 2 1.2 3 0.5 21 1.0
LOAD COMB 1022 1.2DL + 0.5LL + 1.0EQ2
1 1.2 2 1.2 3 0.5 22 1.0
LOAD COMB 1121 1.2DL + 0.5LL - 1.0EQ1
1 1.2 2 1.2 3 0.5 21 -1.0
LOAD COMB 1122 1.2DL + 0.5LL - 1.0EQ2
1 1.2 2 1.2 3 0.5 22 -1.0
LOAD COMB 1221 0.9DL + 1.0EQ1
1 0.9 2 0.9 21 1.0
LOAD COMB 1222 0.9DL + 1.0EQ2
1 0.9 2 0.9 22 1.0
LOAD COMB 1321 0.9DL - 1.0EQ1
1 0.9 2 0.9 21 -1.0
LOAD COMB 1322 0.9DL - 1.0EQ2
1 0.9 2 0.9 22 -1.0
*SLS
LOAD COMB 2001 1.0DL + 1.0LL
1 1.0 2 1.0 3 1.0
LOAD COMB 2002 1.0DL + 0.5LL
1 1.0 2 1.0 3 0.5
LOAD COMB 2011 DL + LL + WL1
1 1.0 2 1.0 3 1.0 11 1.0
LOAD COMB 2012 DL + LL + WL2
1 1.0 2 1.0 3 1.0 12 1.0
LOAD COMB 2013 DL + LL + WL3
1 1.0 2 1.0 3 1.0 13 1.0
LOAD COMB 2014 DL + LL + WL4
1 1.0 2 1.0 3 1.0 14 1.0
PERFORM ANALYSIS
LOAD LIST 1001 1011 TO 1014 1021 1022 1111 TO 1114 1121 1122 -
1211 TO 1214 1221 1222 1321 1322
PRINT SUPPORT REACTION ALL
PRINT FORCE ENVELOPE NSECTION 5 ALL
LOAD LIST 2001 2002 2011 TO 2014
PRINT JOINT DISPLACEMENT ALL
PARAMETER 1
CODE BS5950
PY 345000 ALL
CHECK CODE ALL
STEEL TAKE OFF ALL