STAAD SPACE SLAB ON GRADE
* SPRING COMPRESSION EXAMPLE
SET NL 3
UNIT FEET KIP
JOINT COORDINATES
1 0.0 0.0 40.0
2 0.0 0.0 36.0
3 0.0 0.0 28.167
4 0.0 0.0 20.333
5 0.0 0.0 12.5
6 0.0 0.0  6.5
7 0.0 0.0  0.0
REPEAT ALL 3 8.5 0.0 0.0
REPEAT 3 8.0 0.0 0.0
REPEAT 5 6.0 0.0 0.0
REPEAT 3 8.0 0.0 0.0
REPEAT 3 8.5 0.0 0.0
ELEMENT INCIDENCES
1 1 8 9 2 TO 6
REPEAT 16 6 7
UNIT INCH
ELEMENT PROPERTIES
1 TO 102 TH 8.0
DEFINE MATERIAL START
ISOTROPIC CONCRETE
E 4000.0
POISSON 0.12
DENSITY 8.68e-005
ALPHA 5e-006
DAMP 0.05
G 1346.15
TYPE CONCRETE
STRENGTH FCU 4
END DEFINE MATERIAL
CONSTANTS
MATERIAL CONCRETE ALL
SPRING COMPRESSION
1 TO 126 KFY
UNIT FEET
SUPPORTS
1 TO 126  ELASTIC MAT DIRECTION Y SUBGRADE 12.0
LOAD 1 'WEIGHT OF MAT & EARTH'
ELEMENT LOAD
1 TO 102 PR GY -1.50
PERFORM ANALYSIS PRINT STATICS CHECK
CHANGE
LOAD 2 'COLUMN LOAD-DL+LL'
JOINT LOADS
1 2   FY -217.
8 9   FY -109.
5     FY -308.7
6     FY -617.4
22 23 FY -410.
29 30 FY -205.
26    FY -542.7
27    FY -1085.4
43 44 50 51 71 72 78 79 FY -307.5
47 54 82    FY -264.2
48 55 76 83 FY -528.3
92 93       FY -205.0
99 100      FY -410.0
103         FY -487.0
104         FY -974.0
113 114     FY -109.0
120 121     FY -217.0
124         FY -273.3
125         FY -546.6
PERFORM ANALYSIS PRINT STATICS CHECK
CHANGE
LOAD 3 'COLUMN OVERTURNING LOAD'
ELEMENT LOAD
1 TO 102 PR GY -1.50
JOINT LOADS
1 2   FY -100.
8 9   FY -50.
5     FY -150.7
6     FY -310.4
22 23 FY -205.
29 30 FY -102.
26    FY -271.7
27    FY -542.4
43 44 50 51 71 72 78 79 FY -153.5
47 54 82    FY -132.2
48 55 76 83 FY -264.3
92 93       FY 102.0
99 100      FY 205.0
103         FY 243.0
104         FY 487.0
113 114     FY 54.0
120 121     FY 108.0
124         FY 136.3
125         FY 273.6
PERFORM ANALYSIS PRINT STATICS CHECK
LOAD LIST 3
PRINT JOINT DISPLACEMENTS LIST 113 114 120 121
PRINT ELEMENT STRESSES LIST 34 67
PRINT SUPPORT REACTIONS LIST 5 6 12 13
FINISH