STAAD PLANE PORTAL ON FOOTING FOUNDATION
UNIT METER KNS
JOINT COORDINATES
1 0.0 0.0 0.0 5 2.4 0.0 0.0
6 1.2 3.0 0.0 ; 7 1.2 6.0 0.0
8 7.2 6.0 0.0 ; 9 7.2 3.0 0.0
10 6.0 0.0 0.0 14 8.4 0.0 0.0
MEMBER INCIDENCES
1 1 2 4
5 3 6 ; 6 6 7
7 7 8 ; 8 6 9
9 8 9 ; 10 9 12
11 10 11 14
MEMBER PROPERTIES BRITISH
1 4 11 14 PRIS YD 0.30 ZD 2.40
2 3 12 13 PRIS YD 0.60 ZD 2.40
5 6 9 10 TABLE ST JO254X203
7 8 TA ST UB305X165X40
UNIT MMS
* E FOR STEEL IS 210 (KN/sq.mm.) AND FOR CONCRETE 21 (KN/sq.mm.)
DEFINE MATERIAL START
ISOTROPIC STEEL
E 210
POISSON 0.3
DENSITY 76.977e-009
ALPHA 6e-006
DAMP 0.03
TYPE STEEL
STRENGTH FY 0.24821 FU 0.399894 RY 1.5 RT 1.2
ISOTROPIC CONCRETE
E 21
POISSON 0.17
DENSITY 23.534e-009
ALPHA 5e-006
DAMP 0.05
G 9.25
TYPE CONCRETE
STRENGTH FCU 0.0275
END DEFINE MATERIAL
CONSTANTS
MATERIAL CONCRETE MEMB 1 TO 4 11 TO 14
MATERIAL STEEL MEMB 5 TO 10
SUPPORTS
2 TO 4 11 TO 13 FIXED BUT MZ KFY 60
1 5 10 14 FIXED BUT MZ KFY 30
UNIT METER
LOADING 1 DEAD AND WIND LOAD COMBINED
SELF Y -1.0
JOINT LOAD
6 7 FX 20.0
MEMBER LOAD
7 8 UNI GY -45.0
PERFORM ANALYSIS
PRINT ANALYSIS RESULTS
FINISH