STAAD SPACE SLAB ON GRADE
UNIT METER KNS
JOINT COORDINATES
1 0.0 0.0 13.33
2 0.0 0.0 12.0
3 0.0 0.0 9.39
4 0.0 0.0 6.78
5 0.0 0.0 4.17
6 0.0 0.0  2.17
7 0.0 0.0  0.0
REPEAT ALL 3 2.83 0.0 0.0
REPEAT 3 2.67 0.0 0.0
REPEAT 5 2 0.0 0.0
REPEAT 3 2.67 0.0 0.0
REPEAT 3 2.83 0.0 0.0
ELEMENT INCIDENCES
1 1 8 9 2 TO 6
REPEAT 16 6 7
UNIT CM
ELEMENT PROPERTIES
1 TO 102 TH 14.0
UNIT MMS
DEFINE MATERIAL START
ISOTROPIC CONCRETE
E 21.0
POISSON 0.17
DENSITY 2.36158e-008
ALPHA 5e-006
DAMP 0.05
G 9.25
TYPE CONCRETE
STRENGTH FCU 0.0275
END DEFINE MATERIAL
CONSTANTS
MATERIAL CONCRETE ALL
UNIT METER
SUPPORTS
1 TO 126  ELASTIC MAT DIRECTION Y SUBGRADE 1570.
PRINT SUPP INFO
LOAD 1 'WEIGHT OF MAT & EARTH'
ELEMENT LOAD
1 TO 102 PR GY -74.2
LOAD 2 'COLUMN LOAD-DL+LL'
JOINT LOADS
1 2   FY -965.
8 9   FY -485.
5     FY -1373.
6     FY -2746.
22 23 FY -1824.
29 30 FY -912.
26    FY -2414.
27    FY -4828.
43 44 50 51 71 72 78 79 FY -1368.
47 54 82    FY -1175.
48 55 76 83 FY -2350.
92 93       FY -912.
99 100      FY -1824.
103         FY -2166.
104         FY -4333.
113 114     FY -485.
120 121     FY -965.
124         FY -1216.
125         FY -2431.
LOADING COMBINATION 101 TOTAL LOAD
1 1. 2 1.
PERFORM ANALYSIS
UNIT CM
LOAD LIST 101
PRINT JOINT DISPLACEMENTS LIST 33 56
PRINT ELEMENT STRESSES LIST 34 67
FINISH