STAAD SPACE FRAME 3
START JOB INFORMATION
JOB NAME - MDP
END JOB INFORMATION
INPUT WIDTH 79
UNIT METER KN
JOINT COORDINATES
1 0 0 0; 2 72 0 0; 3 0 0 8; 4 72 0 6; 5 70.5 0 0; 6 69 0 0; 7 67.5 0 0
8 66 0 0; 9 64.5 0 0; 10 63 0 0; 11 61.5 0 0; 12 60 0 0; 13 58.5 0 0
14 57 0 0; 15 55.5 0 0; 16 54 0 0; 17 52.5 0 0; 18 51 0 0; 19 49.5 0 0
20 48 0 0; 21 46.5 0 0; 22 45 0 0; 23 43.5 0 0; 24 42 0 0; 25 40.5 0 0
26 39 0 0; 27 37.5 0 0; 28 36 0 0; 29 34.5 0 0; 30 33 0 0; 31 31.5 0 0
32 30 0 0; 33 28.5 0 0; 34 27 0 0; 35 25.5 0 0; 36 24 0 0; 37 22.5 0 0
38 21 0 0; 39 19.5 0 0; 40 18 0 0; 41 16.5 0 0; 42 15 0 0; 43 13.5 0 0
44 12 0 0; 45 10.5 0 0; 46 9 0 0; 47 7.5 0 0; 48 6 0 0; 49 4.5 0 0
50 3 0 0; 51 1.5 0 0; 52 1.5 0 8; 53 3 0 8; 54 4.5 0 8; 55 6 0 8
56 7.5 0 8; 57 9 0 8; 58 10.5 0 8; 59 12 0 8; 60 13.5 0 8; 61 15 0 8
62 16.5 0 8; 63 18 0 8; 64 19.5 0 8; 65 21 0 8; 66 22.5 0 8; 67 24 0 8
68 25.5 0 8; 69 27 0 8; 70 28.5 0 8; 71 30 0 8; 72 31.5 0 8; 73 33 0 8
74 34.5 0 8; 75 36 0 8; 76 37.5 0 8; 77 39 0 8; 78 40.5 0 8; 79 42 0 8
80 43.5 0 8; 81 45 0 8; 82 46.5 0 8; 83 48 0 8; 84 49.5 0 8; 85 51 0 8
86 52.5 0 8; 87 54 0 8; 88 55.5 0 8; 89 57 0 8; 90 58.5 0 8; 91 60 0 8
92 61.5 0 8; 93 63 0 8; 94 64.5 0 8; 95 66 0 8; 96 67.5 0 8; 97 69 0 8
98 70.5 0 8; 99 10 0 0; 100 10 0 8; 101 41 0 0; 102 41 0 8; 103 56.5 0 0
104 56.5 0 8
MEMBER INCIDENCES
1 1 3; 2 3 52; 3 4 2; 4 2 5; 5 5 6; 6 6 7; 7 7 8; 8 8 9; 9 9 10; 10 10 11
11 11 12; 12 12 13; 13 13 14; 14 14 103; 15 15 16; 16 16 17; 17 17 18
18 18 19; 19 19 20; 20 20 21; 21 21 22; 22 22 23; 23 23 24; 24 24 101
25 25 26; 26 26 27; 27 27 28; 28 28 29; 29 29 30; 30 30 31; 31 31 32; 32 32 33
33 33 34; 34 34 35; 35 35 36; 36 36 37; 37 37 38; 39 39 40; 40 40 41 
41 41 42
42 42 43; 43 43 44; 44 44 45; 46 46 47; 47 47 48; 48 48 49; 49 49 50
50 50 51
51 51 52; 52 52 53; 53 53 54; 54 54 95; 55 55 56; 56 56 57; 58 58 59
59 59 60
60 60 61; 61 61 62; 62 62 63; 63 63 64; 65 65 66; 66 66 67; 67 67 68; 68 68 69
69 69 70; 70 70 71; 71 71 72; 72 72 73; 73 73 74; 74 74 75; 75 75 76; 76 76 77
77 77 78; 78 78 102; 79 79 80; 80 80 81; 81 81 82; 82 82 83; 83 83 84
84 84 85; 85 85 86; 86 86 87; 87 87 88; 88 88 104; 89 89 90; 90 90 91
91 91 92; 92 92 93; 93 93 94; 94 94 95; 95 95 96; 96 96 97; 97 97 98; 98 98 4
106 46 99; 107 57 100; 108 39 34; 109 64 65; 110 99 45; 111 100 58; 112 99 100
113 35 68; 114 101 25; 115 102 79; 116 101 102; 117 103 15; 118 104 89
119 103 104; 120 1 51; 121 53 48; 122 48 57; 123 57 44; 124 44 61; 125 61 40
126 40 65; 127 65 36; 128 36 69; 129 69 32; 130 32 73; 131 73 28; 132 28 77
133 77 24; 134 24 81; 135 81 20; 136 20 85; 137 85 16; 138 16 89; 139 89 12
140 12 93; 141 93 8; 142 8 97; 143 97 2
MEMBER PROPERTY BRITISH
120 TO 143 TABLE ST PIP1683.2
1 3 112 113 116 119 TABLE ST PIP1935.0
2 4 TO 37 39 TO 44 46 TO 56 58 TO 63 65 TO 98 106 TO 111 114 115 117 -
118 TABLE ST UB457X191X98
DEFINE MATERIAL START
ISOTROPIC MATERIAL1
E 2.05E+006
POISSON 0.25
DENSITY 77
ALPHA 1.2E-005
END DEFINE MATERIAL
CONSTANTS
MATERIAL MATERIAL1 MEMB 1 TO 37 39 TO 44 46 TO 56 58 TO 63 65 TO 98 106 TO 143
SUPPORTS
1 2 PINNED
3 4 35 68 99 TO 104 FIXED BUT FX FZ MX MY MZ
LOAD 1 SW
SELFWEIGHT Y -1
LOAD 2 DL
MEMBER LOAD
2 4 TO 37 39 TO 44 46 TO 56 58 TO 63 65 TO 98 106 TO 111 114 115 117 -
118 UNI GY -6.4
LOAD 3 LL
MEMBER LOAD 
2 4 TO 37 39 TO 44 46 TO 56 58 TO 63 65 TO 98 106 TO 111 114 115 117 -
118 UNI GY -4.8
LOAD 4 SLS LOAD
JOINT LOAD
3 4 52 TO 98 FZ -1.
LOAD COMB 101 1.0DL + 1.0LL
1 1.0 2 1.0 3 1.0
LOAD COMB 102 1.4DL + 1.6LL
1 1.4 2 1.4 3 1.6
LOAD COMB 103 1.4DL + 1.6LL + 1.5SLS
1 1.4 2 1.4 3 1.6 4 1.5
PERFORM ANALYSIS
PARAMETER 
CODE BS5950
CHECK CODE MEMB 120 TO 143
PRINT SUPPORT REACTION
PRINT MEMB FORCES LIST 120 TO 143
PRINT MAXFORCE ENVELOPE LIST 120 TO 143
FINISH